  
       XFOIL         Version 6.96
  
 Calculated polar for: FAD18                                           
  
 1 1 Reynolds number fixed          Mach number fixed         
  
 xtrf =   1.000 (top)        1.000 (bottom)  
 Mach =   0.000     Re =     0.100 e 6     Ncrit =   9.000
  
   alpha    CL        CD       CDp       CM     Top_Xtr  Bot_Xtr
  ------ -------- --------- --------- -------- -------- --------
  -4.000  -0.3023   0.02250   0.01427  -0.0293   1.0000   0.0611
  -3.500  -0.2522   0.01940   0.01080  -0.0272   1.0000   0.0857
  -3.000  -0.2037   0.01635   0.00764  -0.0256   1.0000   0.1300
  -2.500  -0.1566   0.01385   0.00568  -0.0242   1.0000   0.2291
  -2.000  -0.1237   0.01092   0.00539  -0.0177   1.0000   0.8351
  -1.500  -0.0481   0.01081   0.00493  -0.0218   1.0000   1.0000
  -1.000  -0.0132   0.01125   0.00491  -0.0203   1.0000   1.0000
  -0.500   0.1068   0.01157   0.00488  -0.0339   0.9621   1.0000
   0.000   0.2080   0.01162   0.00472  -0.0425   0.9169   1.0000
   0.500   0.2720   0.01171   0.00462  -0.0428   0.8579   1.0000
   1.000   0.3231   0.01197   0.00461  -0.0401   0.8043   1.0000
   1.500   0.3703   0.01236   0.00482  -0.0374   0.7502   1.0000
   2.000   0.4191   0.01283   0.00506  -0.0351   0.7016   1.0000
   2.500   0.4682   0.01331   0.00532  -0.0329   0.6541   1.0000
   3.000   0.5184   0.01391   0.00571  -0.0311   0.6101   1.0000
   3.500   0.5685   0.01454   0.00617  -0.0294   0.5642   1.0000
   4.000   0.6192   0.01516   0.00675  -0.0280   0.5195   1.0000
   4.500   0.6694   0.01577   0.00752  -0.0265   0.4713   1.0000
   5.000   0.7197   0.01653   0.00824  -0.0252   0.4264   1.0000
   5.500   0.7687   0.01726   0.00884  -0.0236   0.3769   1.0000
   6.000   0.8176   0.01840   0.00991  -0.0223   0.3282   1.0000
   6.500   0.8651   0.01928   0.01089  -0.0208   0.2722   1.0000
   7.000   0.9096   0.02095   0.01234  -0.0192   0.2122   1.0000
   7.500   0.9528   0.02290   0.01467  -0.0174   0.1530   1.0000
   8.000   0.9918   0.02626   0.01795  -0.0155   0.1071   1.0000
   8.500   1.0325   0.03067   0.02297  -0.0134   0.0865   1.0000
   9.000   1.0580   0.03783   0.03061  -0.0112   0.0667   1.0000
   9.500   1.0845   0.04249   0.03600  -0.0086   0.0535   1.0000
  10.000   1.0886   0.05042   0.04464  -0.0062   0.0480   1.0000
  10.500   1.0658   0.05945   0.05431  -0.0048   0.0472   1.0000
  11.000   1.0165   0.07153   0.06685  -0.0104   0.0487   1.0000
  11.500   0.9394   0.09594   0.09149  -0.0298   0.0554   1.0000
  12.000   0.8918   0.11824   0.11367  -0.0423   0.0601   1.0000
