  
       XFOIL         Version 6.96
  
 Calculated polar for: FAD18                                           
  
 1 1 Reynolds number fixed          Mach number fixed         
  
 xtrf =   1.000 (top)        1.000 (bottom)  
 Mach =   0.000     Re =     0.750 e 6     Ncrit =   9.000
  
   alpha    CL        CD       CDp       CM     Top_Xtr  Bot_Xtr
  ------ -------- --------- --------- -------- -------- --------
  -4.000  -0.2837   0.00950   0.00412  -0.0288   0.9888   0.0132
  -3.500  -0.2140   0.00847   0.00297  -0.0314   0.9674   0.0169
  -2.000  -0.0441   0.00691   0.00141  -0.0307   0.7971   0.1833
  -1.500   0.0070   0.00622   0.00121  -0.0299   0.7444   0.3867
  -1.000   0.0593   0.00591   0.00104  -0.0291   0.6936   0.5236
  -0.500   0.1109   0.00554   0.00098  -0.0281   0.6530   0.6791
   0.000   0.1599   0.00520   0.00100  -0.0261   0.6132   0.8385
   0.500   0.2156   0.00517   0.00104  -0.0254   0.5727   0.9539
   1.000   0.2934   0.00533   0.00102  -0.0300   0.5337   1.0000
   1.500   0.3467   0.00558   0.00108  -0.0294   0.4920   1.0000
   2.000   0.4003   0.00583   0.00115  -0.0289   0.4533   1.0000
   2.500   0.4543   0.00607   0.00126  -0.0284   0.4218   1.0000
   3.000   0.5085   0.00631   0.00141  -0.0280   0.3923   1.0000
   3.500   0.5622   0.00665   0.00160  -0.0276   0.3522   1.0000
   4.000   0.6162   0.00700   0.00190  -0.0272   0.3168   1.0000
   4.500   0.6691   0.00752   0.00218  -0.0268   0.2642   1.0000
   5.000   0.7223   0.00803   0.00252  -0.0265   0.2212   1.0000
   5.500   0.7753   0.00859   0.00293  -0.0261   0.1799   1.0000
   6.000   0.8266   0.00945   0.00346  -0.0257   0.1211   1.0000
   6.500   0.8773   0.01042   0.00414  -0.0252   0.0672   1.0000
   7.000   0.9307   0.01090   0.00484  -0.0249   0.0632   1.0000
   7.500   0.9815   0.01183   0.00564  -0.0244   0.0363   1.0000
   8.000   1.0320   0.01274   0.00650  -0.0239   0.0263   1.0000
   9.000   1.1324   0.01456   0.00848  -0.0228   0.0130   1.0000
   9.500   1.1750   0.01682   0.01088  -0.0213   0.0051   1.0000
  10.000   1.2244   0.01752   0.01154  -0.0210   0.0040   1.0000
  10.500   1.2654   0.01963   0.01393  -0.0195   0.0029   1.0000
  11.000   1.2951   0.02317   0.01808  -0.0169   0.0026   1.0000
  11.500   1.3079   0.02834   0.02389  -0.0131   0.0026   1.0000
  12.000   1.2932   0.03501   0.03119  -0.0082   0.0027   1.0000
