  
       XFOIL         Version 6.96
  
 Calculated polar for: FAD18                                           
  
 1 1 Reynolds number fixed          Mach number fixed         
  
 xtrf =   1.000 (top)        1.000 (bottom)  
 Mach =   0.000     Re =     0.025 e 6     Ncrit =   9.000
  
   alpha    CL        CD       CDp       CM     Top_Xtr  Bot_Xtr
  ------ -------- --------- --------- -------- -------- --------
  -4.000  -0.3352   0.03810   0.02707  -0.0267   1.0000   0.2634
  -3.500  -0.2897   0.03313   0.02184  -0.0247   1.0000   0.3390
  -3.000  -0.2332   0.02782   0.01621  -0.0234   1.0000   0.4349
  -2.500  -0.1154   0.02135   0.01049  -0.0264   1.0000   1.0000
  -2.000  -0.0805   0.02103   0.00921  -0.0246   1.0000   1.0000
  -1.500  -0.0430   0.02095   0.00844  -0.0227   1.0000   1.0000
  -1.000  -0.0052   0.02105   0.00774  -0.0210   1.0000   1.0000
  -0.500   0.0314   0.02139   0.00766  -0.0194   1.0000   1.0000
   0.000   0.0669   0.02200   0.00794  -0.0182   1.0000   1.0000
   0.500   0.1013   0.02293   0.00860  -0.0176   1.0000   1.0000
   1.000   0.1345   0.02421   0.00970  -0.0178   1.0000   1.0000
   1.500   0.1666   0.02587   0.01125  -0.0186   1.0000   1.0000
   2.000   0.1974   0.02794   0.01327  -0.0201   1.0000   1.0000
   2.500   0.2268   0.03041   0.01582  -0.0220   1.0000   1.0000
   3.000   0.2875   0.03400   0.01949  -0.0304   0.9815   1.0000
   3.500   0.4070   0.03895   0.02478  -0.0478   0.9074   1.0000
   4.000   0.5107   0.04361   0.02988  -0.0595   0.8399   1.0000
   4.500   0.5808   0.04744   0.03416  -0.0634   0.7721   1.0000
   5.000   0.6345   0.05204   0.03952  -0.0647   0.7165   1.0000
   5.500   0.6722   0.05664   0.04449  -0.0638   0.6607   1.0000
   6.000   0.7293   0.06109   0.04938  -0.0616   0.6023   1.0000
   6.500   0.7431   0.06720   0.05571  -0.0601   0.5559   1.0000
   7.000   0.7695   0.07487   0.06368  -0.0601   0.5233   1.0000
   7.500   0.7709   0.08118   0.07009  -0.0580   0.4762   1.0000
   8.000   0.7876   0.08912   0.07824  -0.0572   0.4421   1.0000
   8.500   0.7773   0.09999   0.08911  -0.0611   0.4431   1.0000
   9.500   0.8059   0.12067   0.11011  -0.0632   0.4087   1.0000
  10.000   0.6812   0.12743   0.11632  -0.0814   0.6647   1.0000
  10.500   0.7092   0.13626   0.12535  -0.0805   0.5873   1.0000
  11.000   0.7254   0.14461   0.13383  -0.0806   0.5461   1.0000
  11.500   0.7513   0.15657   0.14595  -0.0825   0.5220   1.0000
  12.000   0.7794   0.16768   0.15727  -0.0837   0.4909   1.0000
